#======================================================================

# CRYSTAL DATA

#----------------------------------------------------------------------

data_VESTA_phase_1


_chemical_name_common                  ''
_cell_length_a                         5.72000
_cell_length_b                         7.65000
_cell_length_c                         11.60000
_cell_angle_alpha                      73.10000
_cell_angle_beta                       88.80000
_cell_angle_gamma                      112.00000
_space_group_name_H-M_alt              'P 1'
_space_group_IT_number                 1

loop_
_space_group_symop_operation_xyz
   'x, y, z'

loop_
   _atom_site_label
   _atom_site_occupancy
   _atom_site_fract_x
   _atom_site_fract_y
   _atom_site_fract_z
   _atom_site_adp_type
   _atom_site_B_iso_or_equiv
   _atom_site_type_symbol
   C1         1.0     0.017000     -0.002000      0.000000     Biso  1.000000 C
   C2         1.0     0.054000     -0.175000      0.094000     Biso  1.000000 C
   C3         1.0    -0.201000     -0.318000      0.176000     Biso  1.000000 C
   C4         1.0    -0.331000     -0.229000      0.246000     Biso  1.000000 C
   C5         1.0    -0.158000     -0.151000      0.336000     Biso  1.000000 C
   C6         1.0    -0.271000     -0.062000      0.414000     Biso  1.000000 C
   C7         1.0    -0.080000      0.008000      0.499000     Biso  1.000000 C
   C8         1.0    -0.167000      0.103000      0.583000     Biso  1.000000 C
   C9         1.0     0.041000      0.162000      0.663000     Biso  1.000000 C
   C10        1.0    -0.021000      0.262000      0.751000     Biso  1.000000 C
   C11        1.0     0.201000      0.318000      0.824000     Biso  1.000000 C
   C12        1.0     0.257000      0.146000      0.908000     Biso  1.000000 C
   C13        1.0     0.146000     -0.301000      0.035000     Biso  1.000000 C
   C14        1.0    -0.586000     -0.397000      0.321000     Biso  1.000000 C
   C15        1.0    -0.305000      0.122000      0.328000     Biso  1.000000 C
   C16        1.0    -0.417000     -0.054000      0.667000     Biso  1.000000 C
   C17        1.0    -0.046000      0.456000      0.675000     Biso  1.000000 C
   C18        1.0     0.489000      0.241000      0.970000     Biso  1.000000 C
