#======================================================================

# CRYSTAL DATA

#----------------------------------------------------------------------

data_VESTA_phase_1


_chemical_name_common                  ''
_cell_length_a                         12.46000
_cell_length_b                         8.89000
_cell_length_c                         8.10000
_cell_angle_alpha                      90
_cell_angle_beta                       92.00000
_cell_angle_gamma                      90
_space_group_name_H-M_alt              'P 21/a'
_space_group_IT_number                 14

loop_
_space_group_symop_operation_xyz
   'x, y, z'
   '-x, -y, -z'
   '-x+1/2, y+1/2, -z'
   'x+1/2, -y+1/2, z'

loop_
   _atom_site_label
   _atom_site_occupancy
   _atom_site_fract_x
   _atom_site_fract_y
   _atom_site_fract_z
   _atom_site_adp_type
   _atom_site_B_iso_or_equiv
   _atom_site_type_symbol
   C1(CH2)    1.0     0.753000      0.899000      0.802000     Biso  1.000000 C
   C2(C)      1.0     0.854000      0.865000      0.703000     Biso  1.000000 C
   C3(CH)     1.0     0.845000      0.905000      0.542000     Biso  1.000000 C
   C4(CH2)    1.0     0.745000      0.959000      0.457000     Biso  1.000000 C
   C5(CH3)    1.0     0.968000      0.876000      0.773000     Biso  1.000000 C
   C6(CH2)    1.0     0.744000      0.834000      0.326000     Biso  1.000000 C
   C7(C)      1.0     0.644000      0.874000      0.215000     Biso  1.000000 C
   C8(CH)     1.0     0.659000      0.905000      0.052000     Biso  1.000000 C
   C9(CH2)    1.0     0.757000      0.834000      0.975000     Biso  1.000000 C
   C10(CH3)   1.0     0.532000      0.828000      0.268000     Biso  1.000000 C
